power-flow-agent/results/ieee14/2026-09-16/gpt-5.4/react_nogate__stress/traces/09_case14-stress-004-s0.transcript.txt
==============================================================================
TRANSCRIPT  react_nogate  |  openrouter:openai/gpt-5.4  |  case14  |  case14-stress-004-s0  run 0
==============================================================================
date: 2026-09-16   seed: 0   difficulty: stress   tool variant: None

[system]   (hash 7da5e2a37ec4, from methods/react_nogate/method.json prompt_files)
You are a power system power-flow analysis assistant. You help the user complete power system analysis tasks from natural-language requests.

## What you can do
You complete tasks by calling tool functions:
1. Load an IEEE standard test system (14, 30, 57, 118, 300 buses)
2. Run AC power flow
3. Modify the load at a bus and re-solve
4. Disconnect or reconnect a line and re-solve
5. Query the network status
6. Run an N-1 contingency analysis (disconnect branches one at a time and rank the worst cases)
7. Generate remedial-action suggestions (what-if load shedding or voltage adjustment) to reduce violation risk

## Key rules
- Never fabricate any numerical result. Every voltage, power, loss, or loading value must come from a tool return value.
- If a tool reports an error or a non-converged power flow, say so explicitly and do not report numbers for that state.
- If the request is ambiguous, state the interpretation you are using.
- Bus and line identifiers in the request are MATPOWER 1-based ids; pass them to the tools as given, unless the request itself states a different indexing convention for that identifier (e.g. "(0-based)"), in which case convert it to the MATPOWER 1-based id before calling any tool.
- After a network modification, re-solve before reporting any value.
- Always reply in English.

## Reply format
After each analysis, reply in this structure:
1. One-sentence summary
2. Key numbers (total load, total generation, total losses, voltage range) taken from the tool outputs
3. Violations, if any
4. Suggested next step

[user]
Load the IEEE 14-bus system, increase the active load at bus 4 to 286.8 MW (six times its nominal value), increase the load at bus 3 to 565.2 MW and 114 Mvar (six times its nominal value), and finally increase the load at bus 9 to 177 MW and 99.6 Mvar (six times its nominal value).

--- round 1 ---
[assistant]   (823 in / 20 out tokens, 1.4 s)
(no text)
tool_call  load_case(case_name="case14")
[tool load_case]   (gate: not applied)
{"case_name": "case14", "n_buses": 14, "n_generators": 5, "n_lines": 20, "n_loads": 11, "total_load_mw": 261.9932169620855, "total_gen_capacity_mw": 772.4000000000001}

--- round 2 ---
[assistant]   (924 in / 33 out tokens, 1.4 s)
(no text)
tool_call  modify_load(bus_id=4, p_mw=286.8, q_mvar=0)
[tool modify_load]   (gate: pass)
{"case_name": "case14", "converged": true, "bus_voltages": [{"bus_id": 1, "vm_pu": 1.06, "va_deg": 0.0, "is_violation": true, "violation_type": "overvoltage"}, {"bus_id": 2, "vm_pu": 1.0450000000000002, "va_deg": -11.711329972898291, "is_violation": false, "violation_type": null}, {"bus_id": 3, "vm_pu": 1.01, "va_deg": -24.784689515317336, "is_violation": false, "violation_type": null}, {"bus_id": 4, "vm_pu": 0.9657429891584212, "va_deg": -25.25593766635287, "is_violation": false, "violation_type": null}, {"bus_id": 5, "vm_pu": 0.9781219376510941, "va_deg": -20.398923041434593, "is_violation": false, "violation_type": null}, {"bus_id": 6, "vm_pu": 1.0700000000000003, "va_deg": -27.29381348159652, "is_violation": true, "violation_type": "overvoltage"}, {"bus_id": 7, "vm_pu": 1.0374822910392758, "va_deg": -27.740434532836254, "is_violation": false, "violation_type": null}, {"bus_id": 8, "vm_pu": 1.09, "va_deg": -27.740434532836254, "is_violation": true, "violation_type": "overvoltage"}, {"bus_id": 9, "vm_pu": 1.0317287543516562, "va_deg": -28.99106959152152, "is_violation": false, "violation_type": null}, {"bus_id": 10, "vm_pu": 1.0309235322051074, "va_deg": -28.960405736173712, "is_violation": false, "violation_type": null}, {"bus_id": 11, "vm_pu": 1.046030309065327, "va_deg": -28.26247819668431, "is_violation": false, "violation_type": null}, {"bus_id": 12, "vm_pu": 1.0538364487799068, "va_deg": -28.216790046964007, "is_violation": true, "violation_type": "overvoltage"}, {"bus_id": 13, "vm_pu": 1.0467037995825215, "va_deg": -28.351698152274928, "is_violation": false, "violation_type": null}, {"bus_id": 14, "vm_pu": 1.0207571580878414, "va_deg": -29.68885624843984, "is_violation": false, "violation_type": null}], "line_flows": [{"line_id": 0, "from_bus": 1, "to_bus": 2, "p_from_mw": 362.65453369003325, "q_from_mvar": -55.903798863909316, "loading_percent": 3.4966463475137886, "is_violation": false}, {"line_id": 1, "from_bus": 1, "to_bus": 5, "p_from_mw": 168.61993575555604, "q_from_mvar": 24.453131750143505, "loading_percent": 1.6236306204727835, "is_violation": false}, {"line_id": 2, "from_bus": 2, "to_bus": 3, "p_from_mw": 121.41902266083997, "q_from_mvar": 1.0817942914764698, "loading_percent": 1.173687513794372, "is_violation": false}, {"line_id": 3, "from_bus": 2, "to_bus": 4, "p_from_mw": 139.61328072756453, "q_from_mvar": 15.02328382747348, "loading_percent": 1.3575141260041583, "is_violation": false}, {"line_id": 4, "from_bus": 2, "to_bus": 5, "p_from_mw": 94.07317487510181, "q_from_mvar": 14.23701901405929, "loading_percent": 0.9230468778725024, "is_violation": false}, {"line_id": 5, "from_bus": 3, "to_bus": 4, "p_from_mw": 12.950195079785242, "q_from_mvar": 20.428026437858847, "loading_percent": 0.2527478646683527, "is_violation": false}, {"line_id": 6, "from_bus": 4, "to_bus": 5, "p_from_mw": -178.44298350743813, "q_from_mvar": 36.236696039738234, "loading_percent": 1.9044857811184017, "is_violation": false}, {"line_id": 7, "from_bus": 6, "to_bus": 11, "p_from_mw": 12.7920940237946, "q_from_mvar": 6.866561234685068, "loading_percent": 0.1370576502465984, "is_violation": false}, {"line_id": 8, "from_bus": 6, "to_bus": 12, "p_from_mw": 8.430237364087095, "q_from_mvar": 2.7675611647594787, "loading_percent": 0.08376188760948604, "is_violation": false}, {"line_id": 9, "from_bus": 6, "to_bus": 13, "p_from_mw": 20.402822270719064, "q_from_mvar": 8.920982134510348, "loading_percent": 0.21021328663705743, "is_violation": false}, {"line_id": 10, "from_bus": 9, "to_bus": 10, "p_from_mw": -0.26581028474928536, "q_from_mvar": 1.083405228969435, "loading_percent": 0.01092152063444186, "is_violation": false}, {"line_id": 11, "from_bus": 9, "to_bus": 14, "p_from_mw": 5.5079897374709015, "q_from_mvar": 1.6260839869485293, "loading_percent": 0.056226159915342085, "is_violation": false}, {"line_id": 12, "from_bus": 10, "to_bus": 11, "p_from_mw": -8.697730370644582, "q_from_mvar": -4.351247027054952, "loading_percent": 0.09528990172294233, "is_violation": false}, {"line_id": 13, "from_bus": 12, "to_bus": 13, "p_from_mw": 2.456564450143283, "q_from_mvar": 1.0469587936733706, "loading_percent": 0.0255953858351062, "is_violation": false}, {"line_id": 14, "from_bus": 13, "to_bus": 14, "p_from_mw": 8.892777843590395, "q_from_mvar": 3.5196172664330305, "loading_percent": 0.09229505933300888, "is_violation": false}, {"line_id": 100000, "from_bus": 4, "to_bus": 7, "p_from_mw": 21.23672492550831, "q_from_mvar": -23.156643746810403, "loading_percent": 0.3286337127312893, "is_violation": false}, {"line_id": 100001, "from_bus": 4, "to_bus": 9, "p_from_mw": 12.043802192738521, "q_from_mvar": -5.895186713325062, "loading_percent": 0.1402509499284617, "is_violation": false}, {"line_id": 100002, "from_bus": 5, "to_bus": 6, "p_from_mw": 53.49114476078839, "q_from_mvar": -5.319793206177765, "loading_percent": 0.5551251175902123, "is_violation": false}, {"line_id": 100003, "from_bus": 7, "to_bus": 8, "p_from_mw": -2.0575028289301034e-14, "q_from_mvar": -30.93170196577128, "loading_percent": 0.30115351047072636, "is_violation": false}, {"line_id": 100004, "from_bus": 7, "to_bus": 9, "p_from_mw": 21.23672492550849, "q_from_mvar": 5.657828918652333, "loading_percent": 0.21397446810006632, "is_violation": false}], "total_generation_mw": 570.0269511365227, "total_load_mw": 505.24359716162274, "total_loss_mw": 64.78335397490018, "voltage_violations": [{"bus_id": 1, "vm_pu": 1.06, "va_deg": 0.0, "is_violation": true, "violation_type": "overvoltage"}, {"bus_id": 6, "vm_pu": 1.0700000000000003, "va_deg": -27.29381348159652, "is_violation": true, "violation_type": "overvoltage"}, {"bus_id": 8, "vm_pu": 1.09, "va_deg": -27.740434532836254, "is_violation": true, "violation_type": "overvoltage"}, {"bus_id": 12, "vm_pu": 1.0538364487799068, "va_deg": -28.216790046964007, "is_violation": true, "violation_type": "overvoltage"}], "thermal_violations": [], "summary_text": "", "solver_backend": "pandapower", "llm_prompt": null, "llm_response": null}

--- round 3 ---
[assistant]   (3409 in / 33 out tokens, 1.2 s)
(no text)
tool_call  modify_load(bus_id=3, p_mw=565.2, q_mvar=114)
[tool modify_load]   (gate: pass)
{"case_name": "case14", "converged": true, "bus_voltages": [{"bus_id": 1, "vm_pu": 1.06, "va_deg": 0.0, "is_violation": true, "violation_type": "overvoltage"}, {"bus_id": 2, "vm_pu": 1.0450000000000004, "va_deg": -37.68447210973639, "is_violation": false, "violation_type": null}, {"bus_id": 3, "vm_pu": 1.0099999999999998, "va_deg": -100.24736347491374, "is_violation": false, "violation_type": null}, {"bus_id": 4, "vm_pu": 0.834286110397627, "va_deg": -65.6111869475185, "is_violation": true, "violation_type": "undervoltage"}, {"bus_id": 5, "vm_pu": 0.8407621455581374, "va_deg": -52.94240299645513, "is_violation": true, "violation_type": "undervoltage"}, {"bus_id": 6, "vm_pu": 1.07, "va_deg": -63.96262053626357, "is_violation": true, "violation_type": "overvoltage"}, {"bus_id": 7, "vm_pu": 0.9748710544195113, "va_deg": -67.0304046765622, "is_violation": false, "violation_type": null}, {"bus_id": 8, "vm_pu": 1.09, "va_deg": -67.0304046765622, "is_violation": true, "violation_type": "overvoltage"}, {"bus_id": 9, "vm_pu": 0.9672553743698208, "va_deg": -67.68879854201155, "is_violation": false, "violation_type": null}, {"bus_id": 10, "vm_pu": 0.9767020311989729, "va_deg": -67.2563311394307, "is_violation": false, "violation_type": null}, {"bus_id": 11, "vm_pu": 1.017486774493035, "va_deg": -65.68328364749041, "is_violation": false, "violation_type": null}, {"bus_id": 12, "vm_pu": 1.0492619510181913, "va_deg": -65.05997398842916, "is_violation": false, "violation_type": null}, {"bus_id": 13, "vm_pu": 1.0365182887165179, "va_deg": -65.27019225116723, "is_violation": false, "violation_type": null}, {"bus_id": 14, "vm_pu": 0.9788160286629484, "va_deg": -67.64440290060226, "is_violation": false, "violation_type": null}], "line_flows": [{"line_id": 0, "from_bus": 1, "to_bus": 2, "p_from_mw": 1157.008980563937, "q_from_mvar": 35.4819017207919, "loading_percent": 11.030616666915856, "is_violation": false}, {"line_id": 1, "from_bus": 1, "to_bus": 5, "p_from_mw": 361.3698301037867, "q_from_mvar": 172.6728038625094, "loading_percent": 3.8184869516423166, "is_violation": false}, {"line_id": 2, "from_bus": 2, "to_bus": 3, "p_from_mw": 516.6796033270864, "q_from_mvar": 180.92543231387467, "loading_percent": 5.291587268019143, "is_violation": false}, {"line_id": 3, "from_bus": 2, "to_bus": 4, "p_from_mw": 263.1303633070123, "q_from_mvar": 93.88865210449191, "loading_percent": 2.704632355843735, "is_violation": false}, {"line_id": 4, "from_bus": 2, "to_bus": 5, "p_from_mw": 161.66727633704642, "q_from_mvar": 85.71648618205721, "loading_percent": 1.7807815065951267, "is_violation": false}, {"line_id": 5, "from_bus": 3, "to_bus": 4, "p_from_mw": -177.853074472729, "q_from_mvar": 260.1101862611311, "loading_percent": 3.1586659821642904, "is_violation": false}, {"line_id": 6, "from_bus": 4, "to_bus": 5, "p_from_mw": -323.96794424906665, "q_from_mvar": 130.42957941344025, "loading_percent": 4.228352137907616, "is_violation": false}, {"line_id": 7, "from_bus": 6, "to_bus": 11, "p_from_mw": 24.464813147084577, "q_from_mvar": 16.81416566681423, "loading_percent": 0.2802392288930542, "is_violation": false}, {"line_id": 8, "from_bus": 6, "to_bus": 12, "p_from_mw": 10.24623933432828, "q_from_mvar": 3.8317372961914384, "loading_percent": 0.10326885811706972, "is_violation": false}, {"line_id": 9, "from_bus": 6, "to_bus": 13, "p_from_mw": 26.636679955746708, "q_from_mvar": 14.196720353180917, "loading_percent": 0.28494065558601983, "is_violation": false}, {"line_id": 10, "from_bus": 9, "to_bus": 10, "p_from_mw": -10.946142833488343, "q_from_mvar": -6.660888019572029, "loading_percent": 0.13381075373431148, "is_violation": false}, {"line_id": 11, "from_bus": 9, "to_bus": 14, "p_from_mw": -1.8145088429211957, "q_from_mvar": -3.2825647572374, "loading_percent": 0.03916830676128872, "is_violation": false}, {"line_id": 12, "from_bus": 10, "to_bus": 11, "p_from_mw": -19.4335144168925, "q_from_mvar": -12.242841487149155, "loading_percent": 0.23753847973154926, "is_violation": false}, {"line_id": 13, "from_bus": 12, "to_bus": 13, "p_from_mw": 4.228616262382805, "q_from_mvar": 2.019662384885689, "loading_percent": 0.04511275390105503, "is_violation": false}, {"line_id": 14, "from_bus": 13, "to_bus": 14, "p_from_mw": 16.628911841489888, "q_from_mvar": 9.268596799201205, "loading_percent": 0.1855233018385577, "is_violation": false}, {"line_id": 100000, "from_bus": 4, "to_bus": 7, "p_from_mw": 9.849399379785464, "q_from_mvar": -49.57055384903333, "loading_percent": 0.6119015223604594, "is_violation": false}, {"line_id": 100001, "from_bus": 4, "to_bus": 9, "p_from_mw": 5.428296609330578, "q_from_mvar": -16.353745743603888, "loading_percent": 0.20862350203594135, "is_violation": false}, {"line_id": 100002, "from_bus": 5, "to_bus": 6, "p_from_mw": 73.21372353934746, "q_from_mvar": -53.035169750112296, "loading_percent": 1.0861300638009854, "is_violation": false}, {"line_id": 100003, "from_bus": 7, "to_bus": 8, "p_from_mw": -2.6499300422274895e-14, "q_from_mvar": -63.716080937983435, "loading_percent": 0.6601865695300375, "is_violation": false}, {"line_id": 100004, "from_bus": 7, "to_bus": 9, "p_from_mw": 9.84939937978556, "q_from_mvar": 6.805346644080658, "loading_percent": 0.12404412434314185, "is_violation": false}], "total_generation_mw": 1557.131292358657, "total_load_mw": 968.3237146895242, "total_loss_mw": 588.807577669133, "voltage_violations": [{"bus_id": 1, "vm_pu": 1.06, "va_deg": 0.0, "is_violation": true, "violation_type": "overvoltage"}, {"bus_id": 4, "vm_pu": 0.834286110397627, "va_deg": -65.6111869475185, "is_violation": true, "violation_type": "undervoltage"}, {"bus_id": 5, "vm_pu": 0.8407621455581374, "va_deg": -52.94240299645513, "is_violation": true, "violation_type": "undervoltage"}, {"bus_id": 6, "vm_pu": 1.07, "va_deg": -63.96262053626357, "is_violation": true, "violation_type": "overvoltage"}, {"bus_id": 8, "vm_pu": 1.09, "va_deg": -67.0304046765622, "is_violation": true, "violation_type": "overvoltage"}], "thermal_violations": [], "summary_text": "", "solver_backend": "pandapower", "llm_prompt": null, "llm_response": null}

--- round 4 ---
[assistant]   (5932 in / 33 out tokens, 1.4 s)
(no text)
tool_call  modify_load(bus_id=9, p_mw=177, q_mvar=99.6)
[tool modify_load]   (gate: FAIL, not enforced)
{"case_name": "case14", "converged": false, "bus_voltages": [], "line_flows": [], "total_generation_mw": 0.0, "total_load_mw": 0.0, "total_loss_mw": 0.0, "voltage_violations": [], "thermal_violations": [], "summary_text": "Power flow failed: LoadflowNotConverged: Power Flow nr did not converge after 10 iterations!", "solver_backend": "pandapower", "llm_prompt": null, "llm_response": null}

--- round 5 ---
[assistant]   (6102 in / 299 out tokens, 4.2 s)
1. One-sentence summary  
I loaded the IEEE 14-bus case, applied the bus 4 and bus 3 load increases successfully, but after also increasing bus 9 to 177 MW and 99.6 Mvar the AC power flow did not converge.

2. Key numbers  
- Final requested state: no valid power-flow numbers available, because the solver did not converge.  
- Solver message: `Power flow failed: LoadflowNotConverged: Power Flow nr did not converge after 10 iterations!`

3. Violations, if any  
- For the final requested system state, I cannot report voltage or thermal violations because the power flow did not converge.  
- Just before the last change, after increasing bus 4 and bus 3 only, the case was still converged and already showed voltage violations:
  - Overvoltage: bus 1 = 1.060 pu
  - Undervoltage: bus 4 = 0.8343 pu
  - Undervoltage: bus 5 = 0.8408 pu
  - Overvoltage: bus 6 = 1.070 pu
  - Overvoltage: bus 8 = 1.090 pu

4. Suggested next step  
I suggest either reducing the added load somewhat or asking me to recommend remedial actions for the stressed case; alternatively, I can help find the maximum load increase that still converges.

[final answer]
1. One-sentence summary  
I loaded the IEEE 14-bus case, applied the bus 4 and bus 3 load increases successfully, but after also increasing bus 9 to 177 MW and 99.6 Mvar the AC power flow did not converge.

2. Key numbers  
- Final requested state: no valid power-flow numbers available, because the solver did not converge.  
- Solver message: `Power flow failed: LoadflowNotConverged: Power Flow nr did not converge after 10 iterations!`

3. Violations, if any  
- For the final requested system state, I cannot report voltage or thermal violations because the power flow did not converge.  
- Just before the last change, after increasing bus 4 and bus 3 only, the case was still converged and already showed voltage violations:
  - Overvoltage: bus 1 = 1.060 pu
  - Undervoltage: bus 4 = 0.8343 pu
  - Undervoltage: bus 5 = 0.8408 pu
  - Overvoltage: bus 6 = 1.070 pu
  - Overvoltage: bus 8 = 1.090 pu

4. Suggested next step  
I suggest either reducing the added load somewhat or asking me to recommend remedial actions for the stressed case; alternatively, I can help find the maximum load increase that still converges.
